Version 4
SHEET 1 2708 1556
WIRE -4480 -2944 -4560 -2944
WIRE -4352 -2944 -4416 -2944
WIRE -3600 -2864 -3696 -2864
WIRE -3808 -2848 -4112 -2848
WIRE -3600 -2848 -3600 -2864
WIRE -4480 -2832 -4480 -2864
WIRE -4416 -2832 -4416 -2944
WIRE -4416 -2832 -4480 -2832
WIRE -4608 -2800 -4784 -2800
WIRE -4352 -2800 -4352 -2864
WIRE -4352 -2800 -4544 -2800
WIRE -4784 -2768 -4784 -2800
WIRE -3808 -2720 -3808 -2768
WIRE -3696 -2720 -3696 -2864
WIRE -3696 -2720 -3808 -2720
WIRE -4560 -2704 -4560 -2944
WIRE -4560 -2704 -4672 -2704
WIRE -4032 -2704 -4224 -2704
WIRE -4544 -2688 -4544 -2800
WIRE -4544 -2688 -4656 -2688
WIRE -4112 -2656 -4112 -2848
WIRE -4672 -2640 -4672 -2704
WIRE -4032 -2640 -4032 -2704
WIRE -4032 -2640 -4080 -2640
WIRE -4608 -2624 -4608 -2800
WIRE -4608 -2624 -4640 -2624
WIRE -4512 -2624 -4608 -2624
WIRE -4224 -2624 -4224 -2704
WIRE -4224 -2624 -4432 -2624
WIRE -4144 -2624 -4224 -2624
WIRE -4784 -2608 -4784 -2688
WIRE -4784 -2608 -5296 -2608
WIRE -4704 -2608 -4784 -2608
WIRE -3888 -2608 -4080 -2608
WIRE -4624 -2592 -4640 -2592
WIRE -3600 -2592 -3600 -2768
WIRE -3600 -2592 -4112 -2592
WIRE -4672 -2560 -4672 -2576
WIRE -4656 -2560 -4656 -2688
WIRE -4656 -2560 -4672 -2560
WIRE -4624 -2528 -4624 -2592
WIRE -4576 -2528 -4624 -2528
WIRE -4448 -2528 -4496 -2528
WIRE -4624 -2496 -4624 -2528
WIRE -4624 -2384 -4624 -2416
WIRE -2288 -2336 -2368 -2336
WIRE -2096 -2336 -2176 -2336
WIRE -3888 -2304 -3888 -2608
WIRE -4096 -2288 -4192 -2288
WIRE -4032 -2288 -4096 -2288
WIRE -3888 -2288 -3888 -2304
WIRE -3888 -2288 -3952 -2288
WIRE -3728 -2288 -3888 -2288
WIRE -3616 -2288 -3728 -2288
WIRE -3408 -2288 -3616 -2288
WIRE -3104 -2288 -3408 -2288
WIRE -3408 -2272 -3408 -2288
WIRE -4192 -2240 -4192 -2288
WIRE -4096 -2240 -4096 -2288
WIRE -3888 -2240 -3888 -2288
WIRE -3728 -2240 -3728 -2288
WIRE -3616 -2240 -3616 -2288
WIRE -2896 -2240 -3200 -2240
WIRE -3200 -2208 -3200 -2240
WIRE -2288 -2208 -2288 -2256
WIRE -2176 -2208 -2176 -2336
WIRE -2176 -2208 -2288 -2208
WIRE -3104 -2192 -3104 -2288
WIRE -3104 -2192 -3184 -2192
WIRE -3728 -2176 -3776 -2176
WIRE -3552 -2176 -3616 -2176
WIRE -3408 -2176 -3408 -2192
WIRE -3248 -2176 -3408 -2176
WIRE -3728 -2160 -3728 -2176
WIRE -3616 -2160 -3616 -2176
WIRE -3104 -2160 -3184 -2160
WIRE -3408 -2144 -3408 -2176
WIRE -2368 -2128 -2368 -2336
WIRE -2368 -2128 -2928 -2128
WIRE -3200 -2080 -3200 -2144
WIRE -2928 -2080 -2928 -2128
WIRE -2928 -2080 -3200 -2080
WIRE -2896 -2080 -2896 -2240
WIRE -2832 -2080 -2896 -2080
WIRE -2096 -2080 -2096 -2256
WIRE -2096 -2080 -2832 -2080
WIRE -4192 -2064 -4192 -2160
WIRE -4096 -2064 -4096 -2176
WIRE -4096 -2064 -4192 -2064
WIRE -3888 -2064 -3888 -2176
WIRE -3888 -2064 -4096 -2064
WIRE -3728 -2064 -3728 -2080
WIRE -3728 -2064 -3888 -2064
WIRE -3616 -2064 -3616 -2080
WIRE -3616 -2064 -3728 -2064
WIRE -3776 -2032 -3776 -2176
WIRE -3552 -2032 -3552 -2176
WIRE -3408 -2016 -3408 -2064
WIRE -3104 -2016 -3104 -2160
WIRE -3104 -2016 -3408 -2016
WIRE -3104 -1984 -3104 -2016
WIRE -3776 -1904 -3776 -1952
WIRE -3776 -1904 -3824 -1904
WIRE -3552 -1904 -3552 -1952
WIRE -3504 -1904 -3552 -1904
WIRE -3616 -1840 -3616 -2064
WIRE -3104 -1840 -3104 -1904
WIRE -3104 -1840 -3616 -1840
WIRE -3104 -1824 -3104 -1840
WIRE -3504 -1776 -3504 -1904
WIRE -2928 -1776 -2928 -2080
WIRE -2928 -1776 -3504 -1776
WIRE -3824 -1760 -3824 -1904
WIRE -2832 -1760 -2832 -2080
WIRE -2832 -1760 -3824 -1760
WIRE -4448 -352 -4448 -2528
WIRE -1136 -352 -4448 -352
FLAG -3104 -1824 0
FLAG -3888 -2304 V2
FLAG -4096 -2288 V1
FLAG -3696 -2720 0
FLAG -4416 -2832 0
FLAG -2176 -2208 0
FLAG -4624 -2384 0
FLAG -1136 -272 0
SYMBOL ind -4208 -2256 R0
SYMATTR InstName L2
SYMATTR Value 8.5mH
SYMBOL cap -4112 -2240 R0
SYMATTR InstName C3
SYMATTR Value 47nF
SYMBOL res -3936 -2304 R90
WINDOW 0 0 56 VBottom 2
WINDOW 3 32 56 VTop 2
SYMATTR InstName R9
SYMATTR Value 1.6k
SYMBOL cap -3904 -2240 R0
SYMATTR InstName C4
SYMATTR Value 4.6nF
SYMBOL diode -3712 -2176 R180
WINDOW 0 24 64 Left 2
WINDOW 3 24 0 Left 2
SYMATTR InstName D3
SYMATTR Value 1N4148
SYMBOL diode -3632 -2240 R0
SYMATTR InstName D4
SYMATTR Value 1N4148
SYMBOL res -3744 -2176 R0
SYMATTR InstName R10
SYMATTR Value 3.3k
SYMBOL res -3632 -2176 R0
SYMATTR InstName R11
SYMATTR Value 3.3k
SYMBOL res -3792 -2048 R0
SYMATTR InstName R12
SYMATTR Value 47k
SYMBOL res -3568 -2048 R0
SYMATTR InstName R13
SYMATTR Value 47k
SYMBOL res -3424 -2288 R0
SYMATTR InstName R14
SYMATTR Value 290
SYMBOL res -3424 -2160 R0
SYMATTR InstName R15
SYMATTR Value 290
SYMBOL res -3120 -2000 R0
SYMATTR InstName R16
SYMATTR Value 1.2k
SYMBOL OpAmps\\LT1351 -3216 -2176 R180
SYMATTR InstName U4
SYMBOL OpAmps\\UniversalOpAmp -4112 -2624 M0
SYMATTR InstName U5
SYMBOL voltage -3808 -2864 R0
WINDOW 123 0 0 Left 0
WINDOW 39 0 0 Left 0
SYMATTR InstName V1
SYMATTR Value 40
SYMBOL voltage -3600 -2864 R0
WINDOW 123 0 0 Left 0
WINDOW 39 0 0 Left 0
SYMATTR InstName V2
SYMATTR Value 40
SYMBOL OpAmps\\UniversalOpAmp -4672 -2608 M0
SYMATTR InstName U6
SYMBOL res -4416 -2640 R90
WINDOW 0 0 56 VBottom 2
WINDOW 3 32 56 VTop 2
SYMATTR InstName R1_recv
SYMATTR Value 2000
SYMBOL res -4480 -2544 R90
WINDOW 0 0 56 VBottom 2
WINDOW 3 32 56 VTop 2
SYMATTR InstName R2_recv
SYMATTR Value 2000
SYMBOL voltage -4480 -2960 R0
WINDOW 123 0 0 Left 0
WINDOW 39 0 0 Left 0
SYMATTR InstName V11
SYMATTR Value 40
SYMBOL voltage -4352 -2960 R0
WINDOW 123 0 0 Left 0
WINDOW 39 0 0 Left 0
SYMATTR InstName V12
SYMATTR Value 40
SYMBOL voltage -2288 -2352 R0
WINDOW 123 0 0 Left 0
WINDOW 39 0 0 Left 0
SYMATTR InstName V13
SYMATTR Value 40
SYMBOL voltage -2096 -2352 R0
WINDOW 123 0 0 Left 0
WINDOW 39 0 0 Left 0
SYMATTR InstName V14
SYMATTR Value 40
SYMBOL res -4640 -2512 R0
SYMATTR InstName R4_recv
SYMATTR Value 2000
SYMBOL res -4800 -2784 R0
SYMATTR InstName R3_recv
SYMATTR Value 2000
SYMBOL voltage -1136 -368 R0
SYMATTR InstName V3
SYMATTR Value wavefile=encrypted_waveform.wav
TEXT -2080 -3168 Left 2 ;Receiver node
TEXT -5296 -240 Left 2 !.tran 0 10000m 0 0.1m
TEXT -5472 -2672 Left 2 !.wave "decrypted.wav" 16 44.1k V(n006)
RECTANGLE Normal -1856 -1568 -4992 -3200
